This file contains any messages produced by compilers while
running configure, to aid debugging if configure makes a mistake.

It was created by Specfem3D_Globe configure 7.0.1, which was
generated by GNU Autoconf 2.69.  Invocation command line was

  $ ./configure --prefix=/gpfs/scratch/userinternal/planucar/.CIG/specfem3d_globe_cineca --with-mic MPI_INC=/cineca/prod/compilers/intel/cs-xe-2015/binary/impi_5.0.2/include64

## --------- ##
## Platform. ##
## --------- ##

hostname = node134
uname -m = x86_64
uname -r = 3.10.0-123.el7.x86_64
uname -s = Linux
uname -v = #1 SMP Mon Jun 30 12:09:22 UTC 2014

/usr/bin/uname -p = x86_64
/bin/uname -X     = unknown

/bin/arch              = x86_64
/usr/bin/arch -k       = unknown
/usr/convex/getsysinfo = unknown
/usr/bin/hostinfo      = unknown
/bin/machine           = unknown
/usr/bin/oslevel       = unknown
/bin/universe          = unknown

PATH: /cineca/prod/compilers/intel/cs-xe-2015/binary/vtune_amplifier_xe_2015.1.1.380310/bin64
PATH: /cineca/prod/compilers/intel/cs-xe-2015/binary/composer_xe_2015.2.164/bin/intel64
PATH: /cineca/prod/compilers/intel/cs-xe-2015/binary/composer_xe_2015.2.164/debugger/gdb/intel64_mic/bin
PATH: /cineca/prod/compilers/intel/cs-xe-2015/binary/impi_5.0.2/intel64/bin
PATH: /cineca/prod/compilers/intel/cs-xe-2015/binary/inspector_xe/bin64
PATH: /cineca/prod/compilers/intel/cs-xe-2015/binary/bin
PATH: /cineca/bin
PATH: /galileo/cineca/sysprod/pbs/default/bin
PATH: /cineca/prod/compilers/intel/cs-xe-2015/binary/vtune_amplifier_xe_2015.1.1.380310/bin64
PATH: /cineca/prod/compilers/intel/cs-xe-2015/binary/composer_xe_2015.2.164/bin/intel64
PATH: /cineca/prod/compilers/intel/cs-xe-2015/binary/composer_xe_2015.2.164/debugger/gdb/intel64_mic/bin
PATH: /cineca/bin
PATH: /usr/lib64/qt-3.3/bin
PATH: /galileo/cineca/sysprod/pbs/default/bin
PATH: /usr/local/bin
PATH: /usr/bin
PATH: /usr/local/sbin
PATH: /usr/sbin
PATH: /galileo/home/userinternal/planucar/.local/bin
PATH: /galileo/home/userinternal/planucar/bin
PATH: /galileo/home/userinternal/planucar/.local/bin
PATH: /galileo/home/userinternal/planucar/bin


## ----------- ##
## Core tests. ##
## ----------- ##

configure:2622: checking build system type
configure:2636: result: x86_64-unknown-linux-gnu
configure:2656: checking host system type
configure:2669: result: x86_64-unknown-linux-gnu
configure:3041: checking for Fortran compiler version
configure:3050: ifort --version >&5
ifort (IFORT) 15.0.2 20150121
Copyright (C) 1985-2015 Intel Corporation.  All rights reserved.

configure:3061: $? = 0
configure:3050: ifort -v >&5
ifort version 15.0.2
configure:3061: $? = 0
configure:3050: ifort -V >&5
Intel(R) Fortran Intel(R) 64 Compiler XE for applications running on Intel(R) 64, Version 15.0.2.164 Build 20150121
Copyright (C) 1985-2015 Intel Corporation.  All rights reserved.

configure:3061: $? = 0
configure:3050: ifort -qversion >&5
ifort: command line warning #10006: ignoring unknown option '-qversion'
ifort: command line error: no files specified; for help type "ifort -help"
configure:3061: $? = 1
configure:3076: checking whether the Fortran compiler works
configure:3098: ifort    conftest.f  >&5
configure:3102: $? = 0
configure:3150: result: yes
configure:3153: checking for Fortran compiler default output file name
configure:3155: result: a.out
configure:3161: checking for suffix of executables
configure:3168: ifort -o conftest    conftest.f  >&5
configure:3172: $? = 0
configure:3194: result: 
configure:3210: checking whether we are cross compiling
configure:3218: ifort -o conftest    conftest.f  >&5
configure:3222: $? = 0
configure:3229: ./conftest
configure:3233: $? = 0
configure:3248: result: no
configure:3253: checking for suffix of object files
configure:3269: ifort -c   conftest.f >&5
configure:3273: $? = 0
configure:3294: result: o
configure:3302: checking whether we are using the GNU Fortran compiler
configure:3315: ifort -c   conftest.F >&5
conftest.F(3): error #5082: Syntax error, found END-OF-STATEMENT when expecting one of: ( % [ : . = =>
       choke me
---------------^
conftest.F(3): error #6218: This statement is positioned incorrectly and/or has syntax errors.
       choke me
---------------^
compilation aborted for conftest.F (code 1)
configure:3315: $? = 1
configure: failed program was:
|       program main
| #ifndef __GNUC__
|        choke me
| #endif
| 
|       end
configure:3324: result: no
configure:3330: checking whether ifort accepts -g
configure:3341: ifort -c -g  conftest.f >&5
configure:3341: $? = 0
configure:3349: result: yes
configure:3388: running /bin/sh ./flags.guess
configure:3399: checking how to get verbose linking output from ifort
configure:3409: ifort -c -g  conftest.f >&5
configure:3409: $? = 0
configure:3427: ifort -o conftest -g -v conftest.f
ifort version 15.0.2
/galileo/prod/compilers/intel/cs-xe-2015/binary/composer_xe_2015.2.164/bin/intel64/fortcom    -D__INTEL_COMPILER=1500 -D__INTEL_COMPILER_UPDATE=2 -D__unix__ -D__unix -D__linux__ -D__linux -D__gnu_linux__ -Dunix -Dlinux -D__ELF__ -D__x86_64 -D__x86_64__ -D__amd64 -D__amd64__ -D_MT -D__INTEL_COMPILER_BUILD_DATE=20150121 -D__INTEL_OFFLOAD -D__i686 -D__i686__ -D__pentiumpro -D__pentiumpro__ -D__pentium4 -D__pentium4__ -D__tune_pentium4__ -D__SSE2__ -D__SSE2_MATH__ -D__SSE__ -D__SSE_MATH__ -D__MMX__ -mGLOB_pack_sort_init_list -I. -I/cineca/prod/compilers/intel/cs-xe-2015/binary/composer_xe_2015.2.164/ipp/include -I/cineca/prod/compilers/intel/cs-xe-2015/binary/composer_xe_2015.2.164/mkl/include -I/cineca/prod/compilers/intel/cs-xe-2015/binary/composer_xe_2015.2.164/tbb/include -I/cineca/prod/compilers/intel/cs-xe-2015/binary/composer_xe_2015.2.164/ipp/include -I/cineca/prod/compilers/intel/cs-xe-2015/binary/composer_xe_2015.2.164/mkl/include -I/cineca/prod/compilers/intel/cs-xe-2015/binary/composer_xe_2015.2.164/tbb/include -I/galileo/prod/compilers/intel/cs-xe-2015/binary/composer_xe_2015.2.164/compiler/include/intel64 -I/galileo/prod/compilers/intel/cs-xe-2015/binary/composer_xe_2015.2.164/compiler/include -I/usr/local/include -I/usr/lib/gcc/x86_64-redhat-linux/4.8.2/include -I/usr/include/ -I/usr/include "-fp_modbits honor_f32_conversion" "-fp_modbits honor_f64_conversion" -O0 -g2 -simd -offload_host -mP1OPT_version=15.0-intel64 -mGLOB_diag_file=/var/tmp/pbs.1108697.io01/ifortLojBJM.diag -mGLOB_source_language=GLOB_SOURCE_LANGUAGE_F90 -mP2OPT_static_promotion -mP1OPT_print_version=FALSE -mCG_use_gas_got_workaround=F -mP2OPT_align_option_used=TRUE -mGLOB_gcc_version=482 "-mGLOB_options_string=-o conftest -g -v" -mGLOB_cxx_limited_range=FALSE -mCG_extend_parms=FALSE -mGLOB_compiler_bin_directory=/galileo/prod/compilers/intel/cs-xe-2015/binary/composer_xe_2015.2.164/bin/intel64 -mP3OPT_emit_line_numbers -mP2OPT_suppress_unreferenced_locals=FALSE -mGLOB_debug_target=GLOB_DEBUG_TARGET_ALL -mDEBUG_info_level=2 -mDEBUG_use_indirect_strings=TRUE -mGLOB_debug_format=GLOB_DEBUG_FORMAT_DWARF30 -mGLOB_as_output_backup_file_name=/var/tmp/pbs.1108697.io01/ifortcayR6has_.s -mGLOB_em64t -mGLOB_instruction_tuning=0x0 -mGLOB_product_id_code=0x22006d8f -mGLOB_maintain_errno -mGLOB_noinline_intrinsics -mGLOB_use_base_pointer -mCG_bnl_movbe=T -mGLOB_extended_instructions=0x8 -mP3OPT_use_mspp_call_convention -mP2OPT_subs_out_of_bound=FALSE -mGLOB_ansi_alias -mIPOPT_ninl_limit=0 -mIPOPT_ninl_user_level=0 -mPGOPTI_value_profile_use=T -mGLOB_opt_report_use_source_name -mP2OPT_gen_linux_const_pooling=FALSE -mP2OPT_il0_array_sections=TRUE -mGLOB_offload_mode=1 -mP2OPT_offload_unique_var_string=ifort010493814620dB3S7L -mGLOB_opt_level=0 -mIPOPT_args_in_regs=0 -mP2OPT_disam_assume_nonstd_intent_in=FALSE -mGLOB_imf_mapping_library=/galileo/prod/compilers/intel/cs-xe-2015/binary/composer_xe_2015.2.164/bin/intel64/libiml_attr.so -mIPOPT_single_file_compile_and_link=TRUE -mP2OPT_hlo_embed_loopinfo -mPGOPTI_gen_threadsafe_level=0 -mIPOPT_lto_object_enabled -mIPOPT_lto_object_value=1 -mIPOPT_obj_output_file_name=/var/tmp/pbs.1108697.io01/ifortLojBJM.o -mIPOPT_whole_archive_fixup_file_name=/var/tmp/pbs.1108697.io01/ifortwarchmx6TxN -mGLOB_linker_version=2.23.52.0.1 -mGLOB_long_size_64 -mGLOB_routine_pointer_size_64 -mGLOB_driver_tempfile_name=/var/tmp/pbs.1108697.io01/iforttempfileJwmCg3 -mP3OPT_asm_target=P3OPT_ASM_TARGET_GAS -mGLOB_async_unwind_tables=TRUE -mGLOB_obj_output_file=/var/tmp/pbs.1108697.io01/ifortLojBJM.o -mGLOB_source_dialect=GLOB_SOURCE_DIALECT_FORTRAN -mP1OPT_source_file_name=conftest.f -mP2OPT_symtab_type_copy=true conftest.f
#include "..." search starts here:
#include <...> search starts here:
 .
 /cineca/prod/compilers/intel/cs-xe-2015/binary/composer_xe_2015.2.164/ipp/include
 /cineca/prod/compilers/intel/cs-xe-2015/binary/composer_xe_2015.2.164/mkl/include
 /cineca/prod/compilers/intel/cs-xe-2015/binary/composer_xe_2015.2.164/tbb/include
 /cineca/prod/compilers/intel/cs-xe-2015/binary/composer_xe_2015.2.164/ipp/include
 /cineca/prod/compilers/intel/cs-xe-2015/binary/composer_xe_2015.2.164/mkl/include
 /cineca/prod/compilers/intel/cs-xe-2015/binary/composer_xe_2015.2.164/tbb/include
 /galileo/prod/compilers/intel/cs-xe-2015/binary/composer_xe_2015.2.164/compiler/include/intel64
 /galileo/prod/compilers/intel/cs-xe-2015/binary/composer_xe_2015.2.164/compiler/include
 /usr/local/include
 /usr/lib/gcc/x86_64-redhat-linux/4.8.2/include
 /usr/include/
 /usr/include
End of search list.
ld    /usr/lib/gcc/x86_64-redhat-linux/4.8.2/../../../../lib64/crt1.o /usr/lib/gcc/x86_64-redhat-linux/4.8.2/../../../../lib64/crti.o /usr/lib/gcc/x86_64-redhat-linux/4.8.2/crtbegin.o --eh-frame-hdr --build-id -dynamic-linker /lib64/ld-linux-x86-64.so.2 -m elf_x86_64 -o conftest /galileo/prod/compilers/intel/cs-xe-2015/binary/composer_xe_2015.2.164/compiler/lib/intel64/for_main.o -L/cineca/prod/compilers/intel/cs-xe-2015/binary/composer_xe_2015.2.164/compiler/lib/intel64 -L/cineca/prod/compilers/intel/cs-xe-2015/binary/composer_xe_2015.2.164/ipp/../compiler/lib/intel64 -L/cineca/prod/compilers/intel/cs-xe-2015/binary/composer_xe_2015.2.164/ipp/lib/intel64 -L/cineca/prod/compilers/intel/cs-xe-2015/binary/composer_xe_2015.2.164/compiler/lib/intel64 -L/cineca/prod/compilers/intel/cs-xe-2015/binary/composer_xe_2015.2.164/mkl/lib/intel64 -L/cineca/prod/compilers/intel/cs-xe-2015/binary/composer_xe_2015.2.164/tbb/lib/intel64/gcc4.4 -L/cineca/prod/compilers/intel/cs-xe-2015/binary/composer_xe_2015.2.164/compiler/lib/intel64 -L/cineca/prod/compilers/intel/cs-xe-2015/binary/composer_xe_2015.2.164/ipp/../compiler/lib/intel64 -L/cineca/prod/compilers/intel/cs-xe-2015/binary/composer_xe_2015.2.164/ipp/lib/intel64 -L/cineca/prod/compilers/intel/cs-xe-2015/binary/composer_xe_2015.2.164/compiler/lib/intel64 -L/cineca/prod/compilers/intel/cs-xe-2015/binary/composer_xe_2015.2.164/mkl/lib/intel64 -L/cineca/prod/compilers/intel/cs-xe-2015/binary/composer_xe_2015.2.164/tbb/lib/intel64/gcc4.4 -L/galileo/prod/compilers/intel/cs-xe-2015/binary/composer_xe_2015.2.164/compiler/lib/intel64 -L/usr/lib/gcc/x86_64-redhat-linux/4.8.2/ -L/usr/lib/gcc/x86_64-redhat-linux/4.8.2/../../../../lib64 -L/usr/lib/gcc/x86_64-redhat-linux/4.8.2/../../../../lib64/ -L/lib/../lib64 -L/lib/../lib64/ -L/usr/lib/../lib64 -L/usr/lib/../lib64/ -L/cineca/prod/compilers/intel/cs-xe-2015/binary/composer_xe_2015.2.164/compiler/lib/intel64/ -L/cineca/prod/compilers/intel/cs-xe-2015/binary/composer_xe_2015.2.164/ipp/../compiler/lib/intel64/ -L/cineca/prod/compilers/intel/cs-xe-2015/binary/composer_xe_2015.2.164/ipp/lib/intel64/ -L/cineca/prod/compilers/intel/cs-xe-2015/binary/composer_xe_2015.2.164/mkl/lib/intel64/ -L/cineca/prod/compilers/intel/cs-xe-2015/binary/composer_xe_2015.2.164/tbb/lib/intel64/gcc4.4/ -L/usr/lib/gcc/x86_64-redhat-linux/4.8.2/../../../ -L/lib64 -L/lib/ -L/usr/lib64 -L/usr/lib /var/tmp/pbs.1108697.io01/ifortLojBJM.o -Bdynamic -Bstatic -lifport -lifcore -limf -lsvml -Bdynamic -lm -Bstatic -lipgo -lirc -Bdynamic -lpthread -Bstatic -lsvml -Bdynamic -lc -lgcc -lgcc_s -Bstatic -lirc_s -Bdynamic -ldl -lc /usr/lib/gcc/x86_64-redhat-linux/4.8.2/crtend.o /usr/lib/gcc/x86_64-redhat-linux/4.8.2/../../../../lib64/crtn.o
configure:3510: result: -v
configure:3512: checking for Fortran libraries of ifort
configure:3535: ifort -o conftest -g -v conftest.f
ifort version 15.0.2
/galileo/prod/compilers/intel/cs-xe-2015/binary/composer_xe_2015.2.164/bin/intel64/fortcom    -D__INTEL_COMPILER=1500 -D__INTEL_COMPILER_UPDATE=2 -D__unix__ -D__unix -D__linux__ -D__linux -D__gnu_linux__ -Dunix -Dlinux -D__ELF__ -D__x86_64 -D__x86_64__ -D__amd64 -D__amd64__ -D_MT -D__INTEL_COMPILER_BUILD_DATE=20150121 -D__INTEL_OFFLOAD -D__i686 -D__i686__ -D__pentiumpro -D__pentiumpro__ -D__pentium4 -D__pentium4__ -D__tune_pentium4__ -D__SSE2__ -D__SSE2_MATH__ -D__SSE__ -D__SSE_MATH__ -D__MMX__ -mGLOB_pack_sort_init_list -I. -I/cineca/prod/compilers/intel/cs-xe-2015/binary/composer_xe_2015.2.164/ipp/include -I/cineca/prod/compilers/intel/cs-xe-2015/binary/composer_xe_2015.2.164/mkl/include -I/cineca/prod/compilers/intel/cs-xe-2015/binary/composer_xe_2015.2.164/tbb/include -I/cineca/prod/compilers/intel/cs-xe-2015/binary/composer_xe_2015.2.164/ipp/include -I/cineca/prod/compilers/intel/cs-xe-2015/binary/composer_xe_2015.2.164/mkl/include -I/cineca/prod/compilers/intel/cs-xe-2015/binary/composer_xe_2015.2.164/tbb/include -I/galileo/prod/compilers/intel/cs-xe-2015/binary/composer_xe_2015.2.164/compiler/include/intel64 -I/galileo/prod/compilers/intel/cs-xe-2015/binary/composer_xe_2015.2.164/compiler/include -I/usr/local/include -I/usr/lib/gcc/x86_64-redhat-linux/4.8.2/include -I/usr/include/ -I/usr/include "-fp_modbits honor_f32_conversion" "-fp_modbits honor_f64_conversion" -O0 -g2 -simd -offload_host -mP1OPT_version=15.0-intel64 -mGLOB_diag_file=/var/tmp/pbs.1108697.io01/ifort3zGi3e.diag -mGLOB_source_language=GLOB_SOURCE_LANGUAGE_F90 -mP2OPT_static_promotion -mP1OPT_print_version=FALSE -mCG_use_gas_got_workaround=F -mP2OPT_align_option_used=TRUE -mGLOB_gcc_version=482 "-mGLOB_options_string=-o conftest -g -v" -mGLOB_cxx_limited_range=FALSE -mCG_extend_parms=FALSE -mGLOB_compiler_bin_directory=/galileo/prod/compilers/intel/cs-xe-2015/binary/composer_xe_2015.2.164/bin/intel64 -mP3OPT_emit_line_numbers -mP2OPT_suppress_unreferenced_locals=FALSE -mGLOB_debug_target=GLOB_DEBUG_TARGET_ALL -mDEBUG_info_level=2 -mDEBUG_use_indirect_strings=TRUE -mGLOB_debug_format=GLOB_DEBUG_FORMAT_DWARF30 -mGLOB_as_output_backup_file_name=/var/tmp/pbs.1108697.io01/ifortBfXDXLas_.s -mGLOB_em64t -mGLOB_instruction_tuning=0x0 -mGLOB_product_id_code=0x22006d8f -mGLOB_maintain_errno -mGLOB_noinline_intrinsics -mGLOB_use_base_pointer -mCG_bnl_movbe=T -mGLOB_extended_instructions=0x8 -mP3OPT_use_mspp_call_convention -mP2OPT_subs_out_of_bound=FALSE -mGLOB_ansi_alias -mIPOPT_ninl_limit=0 -mIPOPT_ninl_user_level=0 -mPGOPTI_value_profile_use=T -mGLOB_opt_report_use_source_name -mP2OPT_gen_linux_const_pooling=FALSE -mP2OPT_il0_array_sections=TRUE -mGLOB_offload_mode=1 -mP2OPT_offload_unique_var_string=ifort010167235594328TRm8 -mGLOB_opt_level=0 -mIPOPT_args_in_regs=0 -mP2OPT_disam_assume_nonstd_intent_in=FALSE -mGLOB_imf_mapping_library=/galileo/prod/compilers/intel/cs-xe-2015/binary/composer_xe_2015.2.164/bin/intel64/libiml_attr.so -mIPOPT_single_file_compile_and_link=TRUE -mP2OPT_hlo_embed_loopinfo -mPGOPTI_gen_threadsafe_level=0 -mIPOPT_lto_object_enabled -mIPOPT_lto_object_value=1 -mIPOPT_obj_output_file_name=/var/tmp/pbs.1108697.io01/ifort3zGi3e.o -mIPOPT_whole_archive_fixup_file_name=/var/tmp/pbs.1108697.io01/ifortwarchblIWVi -mGLOB_linker_version=2.23.52.0.1 -mGLOB_long_size_64 -mGLOB_routine_pointer_size_64 -mGLOB_driver_tempfile_name=/var/tmp/pbs.1108697.io01/iforttempfileZVsiqz -mP3OPT_asm_target=P3OPT_ASM_TARGET_GAS -mGLOB_async_unwind_tables=TRUE -mGLOB_obj_output_file=/var/tmp/pbs.1108697.io01/ifort3zGi3e.o -mGLOB_source_dialect=GLOB_SOURCE_DIALECT_FORTRAN -mP1OPT_source_file_name=conftest.f -mP2OPT_symtab_type_copy=true conftest.f
#include "..." search starts here:
#include <...> search starts here:
 .
 /cineca/prod/compilers/intel/cs-xe-2015/binary/composer_xe_2015.2.164/ipp/include
 /cineca/prod/compilers/intel/cs-xe-2015/binary/composer_xe_2015.2.164/mkl/include
 /cineca/prod/compilers/intel/cs-xe-2015/binary/composer_xe_2015.2.164/tbb/include
 /cineca/prod/compilers/intel/cs-xe-2015/binary/composer_xe_2015.2.164/ipp/include
 /cineca/prod/compilers/intel/cs-xe-2015/binary/composer_xe_2015.2.164/mkl/include
 /cineca/prod/compilers/intel/cs-xe-2015/binary/composer_xe_2015.2.164/tbb/include
 /galileo/prod/compilers/intel/cs-xe-2015/binary/composer_xe_2015.2.164/compiler/include/intel64
 /galileo/prod/compilers/intel/cs-xe-2015/binary/composer_xe_2015.2.164/compiler/include
 /usr/local/include
 /usr/lib/gcc/x86_64-redhat-linux/4.8.2/include
 /usr/include/
 /usr/include
End of search list.
ld    /usr/lib/gcc/x86_64-redhat-linux/4.8.2/../../../../lib64/crt1.o /usr/lib/gcc/x86_64-redhat-linux/4.8.2/../../../../lib64/crti.o /usr/lib/gcc/x86_64-redhat-linux/4.8.2/crtbegin.o --eh-frame-hdr --build-id -dynamic-linker /lib64/ld-linux-x86-64.so.2 -m elf_x86_64 -o conftest /galileo/prod/compilers/intel/cs-xe-2015/binary/composer_xe_2015.2.164/compiler/lib/intel64/for_main.o -L/cineca/prod/compilers/intel/cs-xe-2015/binary/composer_xe_2015.2.164/compiler/lib/intel64 -L/cineca/prod/compilers/intel/cs-xe-2015/binary/composer_xe_2015.2.164/ipp/../compiler/lib/intel64 -L/cineca/prod/compilers/intel/cs-xe-2015/binary/composer_xe_2015.2.164/ipp/lib/intel64 -L/cineca/prod/compilers/intel/cs-xe-2015/binary/composer_xe_2015.2.164/compiler/lib/intel64 -L/cineca/prod/compilers/intel/cs-xe-2015/binary/composer_xe_2015.2.164/mkl/lib/intel64 -L/cineca/prod/compilers/intel/cs-xe-2015/binary/composer_xe_2015.2.164/tbb/lib/intel64/gcc4.4 -L/cineca/prod/compilers/intel/cs-xe-2015/binary/composer_xe_2015.2.164/compiler/lib/intel64 -L/cineca/prod/compilers/intel/cs-xe-2015/binary/composer_xe_2015.2.164/ipp/../compiler/lib/intel64 -L/cineca/prod/compilers/intel/cs-xe-2015/binary/composer_xe_2015.2.164/ipp/lib/intel64 -L/cineca/prod/compilers/intel/cs-xe-2015/binary/composer_xe_2015.2.164/compiler/lib/intel64 -L/cineca/prod/compilers/intel/cs-xe-2015/binary/composer_xe_2015.2.164/mkl/lib/intel64 -L/cineca/prod/compilers/intel/cs-xe-2015/binary/composer_xe_2015.2.164/tbb/lib/intel64/gcc4.4 -L/galileo/prod/compilers/intel/cs-xe-2015/binary/composer_xe_2015.2.164/compiler/lib/intel64 -L/usr/lib/gcc/x86_64-redhat-linux/4.8.2/ -L/usr/lib/gcc/x86_64-redhat-linux/4.8.2/../../../../lib64 -L/usr/lib/gcc/x86_64-redhat-linux/4.8.2/../../../../lib64/ -L/lib/../lib64 -L/lib/../lib64/ -L/usr/lib/../lib64 -L/usr/lib/../lib64/ -L/cineca/prod/compilers/intel/cs-xe-2015/binary/composer_xe_2015.2.164/compiler/lib/intel64/ -L/cineca/prod/compilers/intel/cs-xe-2015/binary/composer_xe_2015.2.164/ipp/../compiler/lib/intel64/ -L/cineca/prod/compilers/intel/cs-xe-2015/binary/composer_xe_2015.2.164/ipp/lib/intel64/ -L/cineca/prod/compilers/intel/cs-xe-2015/binary/composer_xe_2015.2.164/mkl/lib/intel64/ -L/cineca/prod/compilers/intel/cs-xe-2015/binary/composer_xe_2015.2.164/tbb/lib/intel64/gcc4.4/ -L/usr/lib/gcc/x86_64-redhat-linux/4.8.2/../../../ -L/lib64 -L/lib/ -L/usr/lib64 -L/usr/lib /var/tmp/pbs.1108697.io01/ifort3zGi3e.o -Bdynamic -Bstatic -lifport -lifcore -limf -lsvml -Bdynamic -lm -Bstatic -lipgo -lirc -Bdynamic -lpthread -Bstatic -lsvml -Bdynamic -lc -lgcc -lgcc_s -Bstatic -lirc_s -Bdynamic -ldl -lc /usr/lib/gcc/x86_64-redhat-linux/4.8.2/crtend.o /usr/lib/gcc/x86_64-redhat-linux/4.8.2/../../../../lib64/crtn.o
configure:3731: result:  -L/cineca/prod/compilers/intel/cs-xe-2015/binary/composer_xe_2015.2.164/compiler/lib/intel64 -L/cineca/prod/compilers/intel/cs-xe-2015/binary/composer_xe_2015.2.164/ipp/../compiler/lib/intel64 -L/cineca/prod/compilers/intel/cs-xe-2015/binary/composer_xe_2015.2.164/ipp/lib/intel64 -L/cineca/prod/compilers/intel/cs-xe-2015/binary/composer_xe_2015.2.164/mkl/lib/intel64 -L/cineca/prod/compilers/intel/cs-xe-2015/binary/composer_xe_2015.2.164/tbb/lib/intel64/gcc4.4 -L/galileo/prod/compilers/intel/cs-xe-2015/binary/composer_xe_2015.2.164/compiler/lib/intel64 -L/usr/lib/gcc/x86_64-redhat-linux/4.8.2/ -L/usr/lib/gcc/x86_64-redhat-linux/4.8.2/../../../../lib64 -L/usr/lib/gcc/x86_64-redhat-linux/4.8.2/../../../../lib64/ -L/lib/../lib64 -L/lib/../lib64/ -L/usr/lib/../lib64 -L/usr/lib/../lib64/ -L/cineca/prod/compilers/intel/cs-xe-2015/binary/composer_xe_2015.2.164/compiler/lib/intel64/ -L/cineca/prod/compilers/intel/cs-xe-2015/binary/composer_xe_2015.2.164/ipp/../compiler/lib/intel64/ -L/cineca/prod/compilers/intel/cs-xe-2015/binary/composer_xe_2015.2.164/ipp/lib/intel64/ -L/cineca/prod/compilers/intel/cs-xe-2015/binary/composer_xe_2015.2.164/mkl/lib/intel64/ -L/cineca/prod/compilers/intel/cs-xe-2015/binary/composer_xe_2015.2.164/tbb/lib/intel64/gcc4.4/ -L/usr/lib/gcc/x86_64-redhat-linux/4.8.2/../../../ -L/lib64 -L/lib/ -L/usr/lib64 -L/usr/lib -lifport -lifcore -limf -lsvml -lm -lipgo -lirc -lpthread -lirc_s -ldl
configure:3790: checking for gcc
configure:3817: result: icc
configure:4046: checking for C compiler version
configure:4055: icc --version >&5
icc (ICC) 15.0.2 20150121
Copyright (C) 1985-2015 Intel Corporation.  All rights reserved.

configure:4066: $? = 0
configure:4055: icc -v >&5
icc version 15.0.2 (gcc version 4.8.2 compatibility)
configure:4066: $? = 0
configure:4055: icc -V >&5
Intel(R) C Intel(R) 64 Compiler XE for applications running on Intel(R) 64, Version 15.0.2.164 Build 20150121
Copyright (C) 1985-2015 Intel Corporation.  All rights reserved.

configure:4066: $? = 0
configure:4055: icc -qversion >&5
icc: command line warning #10006: ignoring unknown option '-qversion'
icc: command line error: no files specified; for help type "icc -help"
configure:4066: $? = 1
configure:4070: checking whether we are using the GNU C compiler
configure:4097: icc -c   conftest.c >&5
configure:4097: $? = 0
configure:4106: result: yes
configure:4115: checking whether icc accepts -g
configure:4143: icc -c -g  conftest.c >&5
configure:4143: $? = 0
configure:4200: result: yes
configure:4217: checking for icc option to accept ISO C89
configure:4288: icc  -c -g -O2  conftest.c >&5
configure:4288: $? = 0
configure:4301: result: none needed
configure:4327: checking for dummy main to link with Fortran libraries
configure:4361: icc -o conftest -g -O2   conftest.c   -L/cineca/prod/compilers/intel/cs-xe-2015/binary/composer_xe_2015.2.164/compiler/lib/intel64 -L/cineca/prod/compilers/intel/cs-xe-2015/binary/composer_xe_2015.2.164/ipp/../compiler/lib/intel64 -L/cineca/prod/compilers/intel/cs-xe-2015/binary/composer_xe_2015.2.164/ipp/lib/intel64 -L/cineca/prod/compilers/intel/cs-xe-2015/binary/composer_xe_2015.2.164/mkl/lib/intel64 -L/cineca/prod/compilers/intel/cs-xe-2015/binary/composer_xe_2015.2.164/tbb/lib/intel64/gcc4.4 -L/galileo/prod/compilers/intel/cs-xe-2015/binary/composer_xe_2015.2.164/compiler/lib/intel64 -L/usr/lib/gcc/x86_64-redhat-linux/4.8.2/ -L/usr/lib/gcc/x86_64-redhat-linux/4.8.2/../../../../lib64 -L/usr/lib/gcc/x86_64-redhat-linux/4.8.2/../../../../lib64/ -L/lib/../lib64 -L/lib/../lib64/ -L/usr/lib/../lib64 -L/usr/lib/../lib64/ -L/cineca/prod/compilers/intel/cs-xe-2015/binary/composer_xe_2015.2.164/compiler/lib/intel64/ -L/cineca/prod/compilers/intel/cs-xe-2015/binary/composer_xe_2015.2.164/ipp/../compiler/lib/intel64/ -L/cineca/prod/compilers/intel/cs-xe-2015/binary/composer_xe_2015.2.164/ipp/lib/intel64/ -L/cineca/prod/compilers/intel/cs-xe-2015/binary/composer_xe_2015.2.164/mkl/lib/intel64/ -L/cineca/prod/compilers/intel/cs-xe-2015/binary/composer_xe_2015.2.164/tbb/lib/intel64/gcc4.4/ -L/usr/lib/gcc/x86_64-redhat-linux/4.8.2/../../../ -L/lib64 -L/lib/ -L/usr/lib64 -L/usr/lib -lifport -lifcore -limf -lsvml -lm -lipgo -lirc -lpthread -lirc_s -ldl >&5
configure:4361: $? = 0
configure:4406: result: none
configure:4439: checking for Fortran name-mangling scheme
configure:4452: ifort -c -g  conftest.f >&5
configure:4452: $? = 0
configure:4493: icc -o conftest -g -O2   conftest.c cfortran_test.o   -L/cineca/prod/compilers/intel/cs-xe-2015/binary/composer_xe_2015.2.164/compiler/lib/intel64 -L/cineca/prod/compilers/intel/cs-xe-2015/binary/composer_xe_2015.2.164/ipp/../compiler/lib/intel64 -L/cineca/prod/compilers/intel/cs-xe-2015/binary/composer_xe_2015.2.164/ipp/lib/intel64 -L/cineca/prod/compilers/intel/cs-xe-2015/binary/composer_xe_2015.2.164/mkl/lib/intel64 -L/cineca/prod/compilers/intel/cs-xe-2015/binary/composer_xe_2015.2.164/tbb/lib/intel64/gcc4.4 -L/galileo/prod/compilers/intel/cs-xe-2015/binary/composer_xe_2015.2.164/compiler/lib/intel64 -L/usr/lib/gcc/x86_64-redhat-linux/4.8.2/ -L/usr/lib/gcc/x86_64-redhat-linux/4.8.2/../../../../lib64 -L/usr/lib/gcc/x86_64-redhat-linux/4.8.2/../../../../lib64/ -L/lib/../lib64 -L/lib/../lib64/ -L/usr/lib/../lib64 -L/usr/lib/../lib64/ -L/cineca/prod/compilers/intel/cs-xe-2015/binary/composer_xe_2015.2.164/compiler/lib/intel64/ -L/cineca/prod/compilers/intel/cs-xe-2015/binary/composer_xe_2015.2.164/ipp/../compiler/lib/intel64/ -L/cineca/prod/compilers/intel/cs-xe-2015/binary/composer_xe_2015.2.164/ipp/lib/intel64/ -L/cineca/prod/compilers/intel/cs-xe-2015/binary/composer_xe_2015.2.164/mkl/lib/intel64/ -L/cineca/prod/compilers/intel/cs-xe-2015/binary/composer_xe_2015.2.164/tbb/lib/intel64/gcc4.4/ -L/usr/lib/gcc/x86_64-redhat-linux/4.8.2/../../../ -L/lib64 -L/lib/ -L/usr/lib64 -L/usr/lib -lifport -lifcore -limf -lsvml -lm -lipgo -lirc -lpthread -lirc_s -ldl >&5
/var/tmp/pbs.1108697.io01/iccnIwyuJ.o: In function `main':
/gpfs/scratch/userinternal/planucar/.CIG/specfem3d_globe_cineca/conftest.c:28: undefined reference to `foobar'
configure:4493: $? = 1
configure: failed program was:
| /* confdefs.h */
| #define PACKAGE_NAME "Specfem3D_Globe"
| #define PACKAGE_TARNAME "Specfem3DGlobe"
| #define PACKAGE_VERSION "7.0.1"
| #define PACKAGE_STRING "Specfem3D_Globe 7.0.1"
| #define PACKAGE_BUGREPORT "see the wiki"
| #define PACKAGE_URL ""
| /* end confdefs.h.  */
| 
| /* Override any GCC internal prototype to avoid an error.
|    Use char because int might match the return type of a GCC
|    builtin and then its argument prototype would still apply.  */
| #ifdef __cplusplus
| extern "C"
| #endif
| char foobar ();
| #ifdef FC_DUMMY_MAIN
| #ifndef FC_DUMMY_MAIN_EQ_F77
| #  ifdef __cplusplus
|      extern "C"
| #  endif
|    int FC_DUMMY_MAIN() { return 1; }
| #endif
| #endif
| int
| main ()
| {
| return foobar ();
|   ;
|   return 0;
| }
configure:4493: icc -o conftest -g -O2   conftest.c cfortran_test.o   -L/cineca/prod/compilers/intel/cs-xe-2015/binary/composer_xe_2015.2.164/compiler/lib/intel64 -L/cineca/prod/compilers/intel/cs-xe-2015/binary/composer_xe_2015.2.164/ipp/../compiler/lib/intel64 -L/cineca/prod/compilers/intel/cs-xe-2015/binary/composer_xe_2015.2.164/ipp/lib/intel64 -L/cineca/prod/compilers/intel/cs-xe-2015/binary/composer_xe_2015.2.164/mkl/lib/intel64 -L/cineca/prod/compilers/intel/cs-xe-2015/binary/composer_xe_2015.2.164/tbb/lib/intel64/gcc4.4 -L/galileo/prod/compilers/intel/cs-xe-2015/binary/composer_xe_2015.2.164/compiler/lib/intel64 -L/usr/lib/gcc/x86_64-redhat-linux/4.8.2/ -L/usr/lib/gcc/x86_64-redhat-linux/4.8.2/../../../../lib64 -L/usr/lib/gcc/x86_64-redhat-linux/4.8.2/../../../../lib64/ -L/lib/../lib64 -L/lib/../lib64/ -L/usr/lib/../lib64 -L/usr/lib/../lib64/ -L/cineca/prod/compilers/intel/cs-xe-2015/binary/composer_xe_2015.2.164/compiler/lib/intel64/ -L/cineca/prod/compilers/intel/cs-xe-2015/binary/composer_xe_2015.2.164/ipp/../compiler/lib/intel64/ -L/cineca/prod/compilers/intel/cs-xe-2015/binary/composer_xe_2015.2.164/ipp/lib/intel64/ -L/cineca/prod/compilers/intel/cs-xe-2015/binary/composer_xe_2015.2.164/mkl/lib/intel64/ -L/cineca/prod/compilers/intel/cs-xe-2015/binary/composer_xe_2015.2.164/tbb/lib/intel64/gcc4.4/ -L/usr/lib/gcc/x86_64-redhat-linux/4.8.2/../../../ -L/lib64 -L/lib/ -L/usr/lib64 -L/usr/lib -lifport -lifcore -limf -lsvml -lm -lipgo -lirc -lpthread -lirc_s -ldl >&5
configure:4493: $? = 0
configure:4551: icc -o conftest -g -O2   conftest.c cfortran_test.o   -L/cineca/prod/compilers/intel/cs-xe-2015/binary/composer_xe_2015.2.164/compiler/lib/intel64 -L/cineca/prod/compilers/intel/cs-xe-2015/binary/composer_xe_2015.2.164/ipp/../compiler/lib/intel64 -L/cineca/prod/compilers/intel/cs-xe-2015/binary/composer_xe_2015.2.164/ipp/lib/intel64 -L/cineca/prod/compilers/intel/cs-xe-2015/binary/composer_xe_2015.2.164/mkl/lib/intel64 -L/cineca/prod/compilers/intel/cs-xe-2015/binary/composer_xe_2015.2.164/tbb/lib/intel64/gcc4.4 -L/galileo/prod/compilers/intel/cs-xe-2015/binary/composer_xe_2015.2.164/compiler/lib/intel64 -L/usr/lib/gcc/x86_64-redhat-linux/4.8.2/ -L/usr/lib/gcc/x86_64-redhat-linux/4.8.2/../../../../lib64 -L/usr/lib/gcc/x86_64-redhat-linux/4.8.2/../../../../lib64/ -L/lib/../lib64 -L/lib/../lib64/ -L/usr/lib/../lib64 -L/usr/lib/../lib64/ -L/cineca/prod/compilers/intel/cs-xe-2015/binary/composer_xe_2015.2.164/compiler/lib/intel64/ -L/cineca/prod/compilers/intel/cs-xe-2015/binary/composer_xe_2015.2.164/ipp/../compiler/lib/intel64/ -L/cineca/prod/compilers/intel/cs-xe-2015/binary/composer_xe_2015.2.164/ipp/lib/intel64/ -L/cineca/prod/compilers/intel/cs-xe-2015/binary/composer_xe_2015.2.164/mkl/lib/intel64/ -L/cineca/prod/compilers/intel/cs-xe-2015/binary/composer_xe_2015.2.164/tbb/lib/intel64/gcc4.4/ -L/usr/lib/gcc/x86_64-redhat-linux/4.8.2/../../../ -L/lib64 -L/lib/ -L/usr/lib64 -L/usr/lib -lifport -lifcore -limf -lsvml -lm -lipgo -lirc -lpthread -lirc_s -ldl >&5
configure:4551: $? = 0
configure:4593: result: lower case, underscore, no extra underscore
configure:4668: checking for Fortran flag to compile .f90 files
configure:4688: ifort -c -g  conftest.f90 >&5
configure:4688: $? = 0
configure:4697: result: none
configure:4722: checking for Fortran flag needed to accept free-form source
configure:4741: ifort -c -g  conftest.f90 >&5
configure:4741: $? = 0
configure:4750: result: none
configure:4775: checking for Fortran flag to compile preprocessed .F files
configure:4800: ifort -c -g  conftest.F >&5
configure:4800: $? = 0
configure:4810: ifort -c -g  conftest.F >&5
conftest.F(4): #error: can't find include file: ac_nonexistent.h
configure:4810: $? = 1
configure: failed program was:
|       program main
| 
| #if 1
| #include <ac_nonexistent.h>
|       choke me
| #endif
|       end
configure:4823: result: none
configure:4844: checking how to define symbols for preprocessed Fortran
configure:4866: ifort -c -g -DFOOBAR -DZORK=42  conftest.F >&5
configure:4866: $? = 0
configure:4875: result: -D
configure:4895: checking for Fortran flag to compile preprocessed .F90 files
configure:4920: ifort -c -g  conftest.F90 >&5
configure:4920: $? = 0
configure:4930: ifort -c -g  conftest.F90 >&5
conftest.F90(4): #error: can't find include file: ac_nonexistent.h
configure:4930: $? = 1
configure: failed program was:
|       program main
| 
| #if 1
| #include <ac_nonexistent.h>
|       choke me
| #endif
|       end
configure:4943: result: none
configure:5012: checking for gcc
configure:5039: result: icc
configure:5268: checking for C compiler version
configure:5277: icc --version >&5
icc (ICC) 15.0.2 20150121
Copyright (C) 1985-2015 Intel Corporation.  All rights reserved.

configure:5288: $? = 0
configure:5277: icc -v >&5
icc version 15.0.2 (gcc version 4.8.2 compatibility)
configure:5288: $? = 0
configure:5277: icc -V >&5
Intel(R) C Intel(R) 64 Compiler XE for applications running on Intel(R) 64, Version 15.0.2.164 Build 20150121
Copyright (C) 1985-2015 Intel Corporation.  All rights reserved.

configure:5288: $? = 0
configure:5277: icc -qversion >&5
icc: command line warning #10006: ignoring unknown option '-qversion'
icc: command line error: no files specified; for help type "icc -help"
configure:5288: $? = 1
configure:5292: checking whether we are using the GNU C compiler
configure:5328: result: yes
configure:5337: checking whether icc accepts -g
configure:5422: result: yes
configure:5439: checking for icc option to accept ISO C89
configure:5523: result: none needed
configure:5574: checking Fortran 90 module extension
configure:5596: ifort -c -g  conftest.F90 >&5
configure:5596: $? = 0
configure:5612: result: mod
configure:5621: checking Fortran 90 module inclusion flag
configure:5643: ifort -c -g  conftest.F90 >&5
configure:5643: $? = 0
configure:5657: ifort -c -g -Mconftest.dir -Mconftest.dir  conftest.F90 >&5
ifort: command line warning #10006: ignoring unknown option '-Mconftest.dir'
ifort: command line warning #10006: ignoring unknown option '-Mconftest.dir'
conftest.F90(3): error #7002: Error in opening the compiled module file.  Check INCLUDE paths.   [CONFTEST_MODULE]
      use conftest_module
----------^
compilation aborted for conftest.F90 (code 1)
configure:5657: $? = 1
configure: failed program was:
| 
|       program main
|       use conftest_module
|       call conftest_routine
|       end program
configure:5657: ifort -c -g -Iconftest.dir -Iconftest.dir  conftest.F90 >&5
configure:5657: $? = 0
configure:5677: result: -I
configure:5692: checking Fortran 90 module output flag
configure:5720: ifort -c -g -Jsub  conftest.F90 >&5
ifort: command line warning #10006: ignoring unknown option '-Jsub'
configure:5720: $? = 0
configure:5729: ifort -c -g -Jsub  conftest.F90 >&5
ifort: command line warning #10006: ignoring unknown option '-Jsub'
conftest.F90(3): error #7002: Error in opening the compiled module file.  Check INCLUDE paths.   [CONFTEST_MODULE]
      use conftest_module
----------^
compilation aborted for conftest.F90 (code 1)
configure:5729: $? = 1
configure: failed program was:
| 
|       program main
|       use conftest_module
|       call conftest_routine
|       end program
configure:5720: ifort -c -g -J sub  conftest.F90 >&5
ifort: command line warning #10006: ignoring unknown option '-J'
ifort: warning #10145: no action performed for file 'sub'
configure:5720: $? = 0
configure:5729: ifort -c -g -J sub  conftest.F90 >&5
ifort: command line warning #10006: ignoring unknown option '-J'
ifort: error #10236: File not found:  'sub'
conftest.F90(3): error #7002: Error in opening the compiled module file.  Check INCLUDE paths.   [CONFTEST_MODULE]
      use conftest_module
----------^
compilation aborted for conftest.F90 (code 1)
configure:5729: $? = 1
configure: failed program was:
| 
|       program main
|       use conftest_module
|       call conftest_routine
|       end program
configure:5720: ifort -c -g -fmod=sub  conftest.F90 >&5
ifort: command line warning #10006: ignoring unknown option '-fmod=sub'
configure:5720: $? = 0
configure:5729: ifort -c -g -fmod=sub  conftest.F90 >&5
ifort: command line warning #10006: ignoring unknown option '-fmod=sub'
conftest.F90(3): error #7002: Error in opening the compiled module file.  Check INCLUDE paths.   [CONFTEST_MODULE]
      use conftest_module
----------^
compilation aborted for conftest.F90 (code 1)
configure:5729: $? = 1
configure: failed program was:
| 
|       program main
|       use conftest_module
|       call conftest_routine
|       end program
configure:5720: ifort -c -g -moddir=sub  conftest.F90 >&5
ifort: command line warning #10159: invalid argument for option '-m'
configure:5720: $? = 0
configure:5729: ifort -c -g -moddir=sub  conftest.F90 >&5
ifort: command line warning #10159: invalid argument for option '-m'
conftest.F90(3): error #7002: Error in opening the compiled module file.  Check INCLUDE paths.   [CONFTEST_MODULE]
      use conftest_module
----------^
compilation aborted for conftest.F90 (code 1)
configure:5729: $? = 1
configure: failed program was:
| 
|       program main
|       use conftest_module
|       call conftest_routine
|       end program
configure:5720: ifort -c -g +moddir=sub  conftest.F90 >&5
ifort: error #10236: File not found:  '+moddir=sub'
configure:5720: $? = 1
configure: failed program was:
| 
|       module conftest_module
|       contains
|       subroutine conftest_routine
|       write(*,'(a)') 'gotcha!'
|       end subroutine
|       end module
configure:5720: ifort -c -g -qmoddir=sub  conftest.F90 >&5
ifort: command line warning #10006: ignoring unknown option '-qmoddir=sub'
configure:5720: $? = 0
configure:5729: ifort -c -g -qmoddir=sub  conftest.F90 >&5
ifort: command line warning #10006: ignoring unknown option '-qmoddir=sub'
conftest.F90(3): error #7002: Error in opening the compiled module file.  Check INCLUDE paths.   [CONFTEST_MODULE]
      use conftest_module
----------^
compilation aborted for conftest.F90 (code 1)
configure:5729: $? = 1
configure: failed program was:
| 
|       program main
|       use conftest_module
|       call conftest_routine
|       end program
configure:5720: ifort -c -g -mod sub  conftest.F90 >&5
configure:5720: $? = 0
configure:5729: ifort -c -g -mod sub  conftest.F90 >&5
configure:5729: $? = 0
configure:5750: result: -mod 
configure:5784: checking how to run the C preprocessor
configure:5815: icc -E  conftest.c
configure:5815: $? = 0
configure:5829: icc -E  conftest.c
conftest.c(11): error #2379: cannot open source file "ac_nonexistent.h"
  #include <ac_nonexistent.h>
                             ^

configure:5829: $? = 2
configure: failed program was:
| /* confdefs.h */
| #define PACKAGE_NAME "Specfem3D_Globe"
| #define PACKAGE_TARNAME "Specfem3DGlobe"
| #define PACKAGE_VERSION "7.0.1"
| #define PACKAGE_STRING "Specfem3D_Globe 7.0.1"
| #define PACKAGE_BUGREPORT "see the wiki"
| #define PACKAGE_URL ""
| #define FC_FUNC(name,NAME) name ## _
| #define FC_FUNC_(name,NAME) name ## _
| /* end confdefs.h.  */
| #include <ac_nonexistent.h>
configure:5854: result: icc -E
configure:5874: icc -E  conftest.c
configure:5874: $? = 0
configure:5888: icc -E  conftest.c
conftest.c(11): error #2379: cannot open source file "ac_nonexistent.h"
  #include <ac_nonexistent.h>
                             ^

configure:5888: $? = 2
configure: failed program was:
| /* confdefs.h */
| #define PACKAGE_NAME "Specfem3D_Globe"
| #define PACKAGE_TARNAME "Specfem3DGlobe"
| #define PACKAGE_VERSION "7.0.1"
| #define PACKAGE_STRING "Specfem3D_Globe 7.0.1"
| #define PACKAGE_BUGREPORT "see the wiki"
| #define PACKAGE_URL ""
| #define FC_FUNC(name,NAME) name ## _
| #define FC_FUNC_(name,NAME) name ## _
| /* end confdefs.h.  */
| #include <ac_nonexistent.h>
configure:5917: checking for grep that handles long lines and -e
configure:5975: result: /usr/bin/grep
configure:5980: checking for egrep
configure:6042: result: /usr/bin/grep -E
configure:6047: checking for ANSI C header files
configure:6075: icc -c -g -O2  conftest.c >&5
configure:6075: $? = 0
configure:6148: icc -o conftest -g -O2   conftest.c  >&5
configure:6148: $? = 0
configure:6148: ./conftest
configure:6148: $? = 0
configure:6159: result: yes
configure:6172: checking for sys/types.h
configure:6172: icc -c -g -O2  conftest.c >&5
configure:6172: $? = 0
configure:6172: result: yes
configure:6172: checking for sys/stat.h
configure:6172: icc -c -g -O2  conftest.c >&5
configure:6172: $? = 0
configure:6172: result: yes
configure:6172: checking for stdlib.h
configure:6172: icc -c -g -O2  conftest.c >&5
configure:6172: $? = 0
configure:6172: result: yes
configure:6172: checking for string.h
configure:6172: icc -c -g -O2  conftest.c >&5
configure:6172: $? = 0
configure:6172: result: yes
configure:6172: checking for memory.h
configure:6172: icc -c -g -O2  conftest.c >&5
configure:6172: $? = 0
configure:6172: result: yes
configure:6172: checking for strings.h
configure:6172: icc -c -g -O2  conftest.c >&5
configure:6172: $? = 0
configure:6172: result: yes
configure:6172: checking for inttypes.h
configure:6172: icc -c -g -O2  conftest.c >&5
configure:6172: $? = 0
configure:6172: result: yes
configure:6172: checking for stdint.h
configure:6172: icc -c -g -O2  conftest.c >&5
configure:6172: $? = 0
configure:6172: result: yes
configure:6172: checking for unistd.h
configure:6172: icc -c -g -O2  conftest.c >&5
configure:6172: $? = 0
configure:6172: result: yes
configure:6184: checking emmintrin.h usability
configure:6184: icc -c -g -O2  conftest.c >&5
configure:6184: $? = 0
configure:6184: result: yes
configure:6184: checking emmintrin.h presence
configure:6184: icc -E  conftest.c
configure:6184: $? = 0
configure:6184: result: yes
configure:6184: checking for emmintrin.h
configure:6184: result: yes
configure:6192: checking xmmintrin.h usability
configure:6192: icc -c -g -O2  conftest.c >&5
configure:6192: $? = 0
configure:6192: result: yes
configure:6192: checking xmmintrin.h presence
configure:6192: icc -E  conftest.c
configure:6192: $? = 0
configure:6192: result: yes
configure:6192: checking for xmmintrin.h
configure:6192: result: yes
configure:6789: FORCE_VECTORIZATION is enabled
configure:7372: checking for C++ compiler version
configure:7381: icpc --version >&5
icpc (ICC) 15.0.2 20150121
Copyright (C) 1985-2015 Intel Corporation.  All rights reserved.

configure:7392: $? = 0
configure:7381: icpc -v >&5
icpc version 15.0.2 (gcc version 4.8.2 compatibility)
configure:7392: $? = 0
configure:7381: icpc -V >&5
Intel(R) C++ Intel(R) 64 Compiler XE for applications running on Intel(R) 64, Version 15.0.2.164 Build 20150121
Copyright (C) 1985-2015 Intel Corporation.  All rights reserved.

configure:7392: $? = 0
configure:7381: icpc -qversion >&5
icpc: command line warning #10006: ignoring unknown option '-qversion'
icpc: command line error: no files specified; for help type "icpc -help"
configure:7392: $? = 1
configure:7396: checking whether we are using the GNU C++ compiler
configure:7423: icpc -c   -DFORCE_VECTORIZATION -mmic -qopt-report-phase=vec
 conftest.cpp >&5
configure:7423: $? = 0
configure:7432: result: yes
configure:7441: checking whether icpc accepts -g
configure:7469: icpc -c -g  -DFORCE_VECTORIZATION -mmic -qopt-report-phase=vec
 conftest.cpp >&5
configure:7469: $? = 0
configure:7526: result: yes
configure:7555: checking how to run the C++ preprocessor
configure:7582: icpc -E  -DFORCE_VECTORIZATION -mmic -qopt-report-phase=vec
 conftest.cpp
configure:7582: $? = 0
configure:7596: icpc -E  -DFORCE_VECTORIZATION -mmic -qopt-report-phase=vec
 conftest.cpp
conftest.cpp(23): error #2379: cannot open source file "ac_nonexistent.h"
  #include <ac_nonexistent.h>
                             ^

configure:7596: $? = 2
configure: failed program was:
| /* confdefs.h */
| #define PACKAGE_NAME "Specfem3D_Globe"
| #define PACKAGE_TARNAME "Specfem3DGlobe"
| #define PACKAGE_VERSION "7.0.1"
| #define PACKAGE_STRING "Specfem3D_Globe 7.0.1"
| #define PACKAGE_BUGREPORT "see the wiki"
| #define PACKAGE_URL ""
| #define FC_FUNC(name,NAME) name ## _
| #define FC_FUNC_(name,NAME) name ## _
| #define STDC_HEADERS 1
| #define HAVE_SYS_TYPES_H 1
| #define HAVE_SYS_STAT_H 1
| #define HAVE_STDLIB_H 1
| #define HAVE_STRING_H 1
| #define HAVE_MEMORY_H 1
| #define HAVE_STRINGS_H 1
| #define HAVE_INTTYPES_H 1
| #define HAVE_STDINT_H 1
| #define HAVE_UNISTD_H 1
| #define HAVE_EMMINTRIN 1
| #define HAVE_XMMINTRIN 1
| /* end confdefs.h.  */
| #include <ac_nonexistent.h>
configure:7621: result: icpc -E
configure:7641: icpc -E  -DFORCE_VECTORIZATION -mmic -qopt-report-phase=vec
 conftest.cpp
configure:7641: $? = 0
configure:7655: icpc -E  -DFORCE_VECTORIZATION -mmic -qopt-report-phase=vec
 conftest.cpp
conftest.cpp(23): error #2379: cannot open source file "ac_nonexistent.h"
  #include <ac_nonexistent.h>
                             ^

configure:7655: $? = 2
configure: failed program was:
| /* confdefs.h */
| #define PACKAGE_NAME "Specfem3D_Globe"
| #define PACKAGE_TARNAME "Specfem3DGlobe"
| #define PACKAGE_VERSION "7.0.1"
| #define PACKAGE_STRING "Specfem3D_Globe 7.0.1"
| #define PACKAGE_BUGREPORT "see the wiki"
| #define PACKAGE_URL ""
| #define FC_FUNC(name,NAME) name ## _
| #define FC_FUNC_(name,NAME) name ## _
| #define STDC_HEADERS 1
| #define HAVE_SYS_TYPES_H 1
| #define HAVE_SYS_STAT_H 1
| #define HAVE_STDLIB_H 1
| #define HAVE_STRING_H 1
| #define HAVE_MEMORY_H 1
| #define HAVE_STRINGS_H 1
| #define HAVE_INTTYPES_H 1
| #define HAVE_STDINT_H 1
| #define HAVE_UNISTD_H 1
| #define HAVE_EMMINTRIN 1
| #define HAVE_XMMINTRIN 1
| /* end confdefs.h.  */
| #include <ac_nonexistent.h>
configure:7785: building from git repository
configure:7968: creating ./config.status

## ---------------------- ##
## Running config.status. ##
## ---------------------- ##

This file was extended by Specfem3D_Globe config.status 7.0.1, which was
generated by GNU Autoconf 2.69.  Invocation command line was

  CONFIG_FILES    = 
  CONFIG_HEADERS  = 
  CONFIG_LINKS    = 
  CONFIG_COMMANDS = 
  $ ./config.status 

on node134

config.status:932: creating Makefile
config.status:932: creating setup/constants.h
config.status:932: creating setup/constants_tomography.h
config.status:932: creating setup/precision.h
config.status:932: creating setup/config.fh
config.status:932: creating DATA/Par_file
config.status:932: creating DATA/CMTSOLUTION
config.status:932: creating DATA/STATIONS
config.status:932: creating setup/config.h
config.status:1102: setup/config.h is unchanged
config.status:1147: executing bin commands
config.status:1147: executing obj commands
config.status:1147: executing OUTPUT_FILES commands
configure:9209: result: 
configure:9214: result: 
configure:9216: result: ./configure has completed and set up a default configuration to build.
configure:9218: result: 
configure:9220: result: You may wish to modify the following files before building:
configure:9223: result:   DATA/Par_file           Set parameters affecting the build and simulation
                          before running make and compiling.
configure:9226: result:   DATA/CMTSOLUTION        Set the source parameters before running the solver.
configure:9228: result:   DATA/STATIONS           Set the receiver stations before running the solver.
configure:9230: result: 

## ---------------- ##
## Cache variables. ##
## ---------------- ##

ac_cv_build=x86_64-unknown-linux-gnu
ac_cv_c_compiler_gnu=yes
ac_cv_cxx_compiler_gnu=yes
ac_cv_env_ADIOS_CONFIG_set=
ac_cv_env_ADIOS_CONFIG_value=
ac_cv_env_ASDF_LIBS_set=
ac_cv_env_ASDF_LIBS_value=
ac_cv_env_CCC_set=
ac_cv_env_CCC_value=
ac_cv_env_CC_set=set
ac_cv_env_CC_value=icc
ac_cv_env_CEM_FCFLAGS_set=
ac_cv_env_CEM_FCFLAGS_value=
ac_cv_env_CEM_LIBS_set=
ac_cv_env_CEM_LIBS_value=
ac_cv_env_CFLAGS_set=
ac_cv_env_CFLAGS_value=
ac_cv_env_CPPFLAGS_set=
ac_cv_env_CPPFLAGS_value=
ac_cv_env_CPP_set=
ac_cv_env_CPP_value=
ac_cv_env_CUDA_FLAGS_set=
ac_cv_env_CUDA_FLAGS_value=
ac_cv_env_CUDA_INC_set=
ac_cv_env_CUDA_INC_value=
ac_cv_env_CUDA_LIB_set=
ac_cv_env_CUDA_LIB_value=
ac_cv_env_CXXCPP_set=
ac_cv_env_CXXCPP_value=
ac_cv_env_CXXFLAGS_set=
ac_cv_env_CXXFLAGS_value=
ac_cv_env_CXX_set=set
ac_cv_env_CXX_value=icpc
ac_cv_env_FCFLAGS_set=
ac_cv_env_FCFLAGS_value=
ac_cv_env_FC_set=set
ac_cv_env_FC_value=ifort
ac_cv_env_FLAGS_CHECK_set=
ac_cv_env_FLAGS_CHECK_value=
ac_cv_env_LDFLAGS_set=
ac_cv_env_LDFLAGS_value=
ac_cv_env_LIBS_set=
ac_cv_env_LIBS_value=
ac_cv_env_LOCAL_PATH_IS_ALSO_GLOBAL_set=
ac_cv_env_LOCAL_PATH_IS_ALSO_GLOBAL_value=
ac_cv_env_MPIFC_set=
ac_cv_env_MPIFC_value=
ac_cv_env_MPILIBS_set=
ac_cv_env_MPILIBS_value=
ac_cv_env_MPI_INC_set=set
ac_cv_env_MPI_INC_value=/cineca/prod/compilers/intel/cs-xe-2015/binary/impi_5.0.2/include64
ac_cv_env_NVCC_set=
ac_cv_env_NVCC_value=
ac_cv_env_OCL_CPU_FLAGS_set=
ac_cv_env_OCL_CPU_FLAGS_value=
ac_cv_env_OCL_GPU_FLAGS_set=
ac_cv_env_OCL_GPU_FLAGS_value=
ac_cv_env_OCL_INC_set=
ac_cv_env_OCL_INC_value=
ac_cv_env_OCL_LIB_set=
ac_cv_env_OCL_LIB_value=
ac_cv_env_build_alias_set=
ac_cv_env_build_alias_value=
ac_cv_env_host_alias_set=
ac_cv_env_host_alias_value=
ac_cv_env_target_alias_set=
ac_cv_env_target_alias_value=
ac_cv_fc_compiler_gnu=no
ac_cv_fc_dummy_main=none
ac_cv_fc_freeform=none
ac_cv_fc_libs=' -L/cineca/prod/compilers/intel/cs-xe-2015/binary/composer_xe_2015.2.164/compiler/lib/intel64 -L/cineca/prod/compilers/intel/cs-xe-2015/binary/composer_xe_2015.2.164/ipp/../compiler/lib/intel64 -L/cineca/prod/compilers/intel/cs-xe-2015/binary/composer_xe_2015.2.164/ipp/lib/intel64 -L/cineca/prod/compilers/intel/cs-xe-2015/binary/composer_xe_2015.2.164/mkl/lib/intel64 -L/cineca/prod/compilers/intel/cs-xe-2015/binary/composer_xe_2015.2.164/tbb/lib/intel64/gcc4.4 -L/galileo/prod/compilers/intel/cs-xe-2015/binary/composer_xe_2015.2.164/compiler/lib/intel64 -L/usr/lib/gcc/x86_64-redhat-linux/4.8.2/ -L/usr/lib/gcc/x86_64-redhat-linux/4.8.2/../../../../lib64 -L/usr/lib/gcc/x86_64-redhat-linux/4.8.2/../../../../lib64/ -L/lib/../lib64 -L/lib/../lib64/ -L/usr/lib/../lib64 -L/usr/lib/../lib64/ -L/cineca/prod/compilers/intel/cs-xe-2015/binary/composer_xe_2015.2.164/compiler/lib/intel64/ -L/cineca/prod/compilers/intel/cs-xe-2015/binary/composer_xe_2015.2.164/ipp/../compiler/lib/intel64/ -L/cineca/prod/compilers/intel/cs-xe-2015/binary/composer_xe_2015.2.164/ipp/lib/intel64/ -L/cineca/prod/compilers/intel/cs-xe-2015/binary/composer_xe_2015.2.164/mkl/lib/intel64/ -L/cineca/prod/compilers/intel/cs-xe-2015/binary/composer_xe_2015.2.164/tbb/lib/intel64/gcc4.4/ -L/usr/lib/gcc/x86_64-redhat-linux/4.8.2/../../../ -L/lib64 -L/lib/ -L/usr/lib64 -L/usr/lib -lifport -lifcore -limf -lsvml -lm -lipgo -lirc -lpthread -lirc_s -ldl'
ac_cv_fc_mangling='lower case, underscore, no extra underscore'
ac_cv_fc_module_ext=mod
ac_cv_fc_module_flag=-I
ac_cv_fc_module_output_flag='-mod '
ac_cv_fc_pp_define=-D
ac_cv_fc_pp_srcext_F90=none
ac_cv_fc_pp_srcext_F=none
ac_cv_fc_srcext_f90=none
ac_cv_fortran_dummy_main=none
ac_cv_header_emmintrin_h=yes
ac_cv_header_inttypes_h=yes
ac_cv_header_memory_h=yes
ac_cv_header_stdc=yes
ac_cv_header_stdint_h=yes
ac_cv_header_stdlib_h=yes
ac_cv_header_string_h=yes
ac_cv_header_strings_h=yes
ac_cv_header_sys_stat_h=yes
ac_cv_header_sys_types_h=yes
ac_cv_header_unistd_h=yes
ac_cv_header_xmmintrin_h=yes
ac_cv_host=x86_64-unknown-linux-gnu
ac_cv_objext=o
ac_cv_path_EGREP='/usr/bin/grep -E'
ac_cv_path_GREP=/usr/bin/grep
ac_cv_prog_CPP='icc -E'
ac_cv_prog_CXXCPP='icpc -E'
ac_cv_prog_ac_ct_CC=icc
ac_cv_prog_cc_c89=
ac_cv_prog_cc_g=yes
ac_cv_prog_cxx_g=yes
ac_cv_prog_fc_g=yes
ac_cv_prog_fc_v=-v

## ----------------- ##
## Output variables. ##
## ----------------- ##

'
ADIOS_CONFIG=''
ADIOS_FCFLAGS=''
ADIOS_LIBS=''
ASDF_LIBS=''
CC='icc'
CEM_FCFLAGS=''
CEM_LIBS=''
CFLAGS='-g -O2'
COND_ADIOS_FALSE=''
COND_ADIOS_TRUE='#'
COND_ASDF_FALSE=''
COND_ASDF_TRUE='#'
COND_CEM_FALSE=''
COND_CEM_TRUE='#'
COND_CUDA5_FALSE=''
COND_CUDA5_TRUE='#'
COND_CUDA_FALSE=''
COND_CUDA_TRUE='#'
COND_DEBUG_FALSE=''
COND_DEBUG_TRUE='#'
COND_MIC_FALSE='#'
COND_MIC_TRUE=''
COND_OCL_FALSE=''
COND_OCL_TRUE='#'
COND_VECTORIZATION_FALSE=''
COND_VECTORIZATION_TRUE='#'
COND_VTK_FALSE=''
COND_VTK_TRUE='#'
CONFIGURE_FLAGS='FC=ifort FCFLAGS=-g'
CPP='icc -E'
CPPFLAGS=' -DFORCE_VECTORIZATION -mmic -qopt-report-phase=vec
CUDA_CPPFLAGS=''
CUDA_FLAGS=''
CUDA_INC=''
CUDA_LDFLAGS=''
CUDA_LIB=''
CUDA_LIBS=''
CUSTOM_MPI_TYPE='MPI_REAL'
CUSTOM_REAL='SIZE_REAL'
CXX='icpc'
CXXCPP='icpc -E'
CXXFLAGS='-g -O2'
DEFS='-DHAVE_CONFIG_H'
ECHO_C=''
ECHO_N='-n'
ECHO_T=''
EGREP='/usr/bin/grep -E'
EXEEXT=''
FC='ifort'
FCENV=''
FCFLAGS='-g'
FCFLAGS_F90=''
FCFLAGS_F=''
FCFLAGS_f90='-mod ./obj -I./obj -I. '
FCLIBS=' -L/cineca/prod/compilers/intel/cs-xe-2015/binary/composer_xe_2015.2.164/compiler/lib/intel64 -L/cineca/prod/compilers/intel/cs-xe-2015/binary/composer_xe_2015.2.164/ipp/../compiler/lib/intel64 -L/cineca/prod/compilers/intel/cs-xe-2015/binary/composer_xe_2015.2.164/ipp/lib/intel64 -L/cineca/prod/compilers/intel/cs-xe-2015/binary/composer_xe_2015.2.164/mkl/lib/intel64 -L/cineca/prod/compilers/intel/cs-xe-2015/binary/composer_xe_2015.2.164/tbb/lib/intel64/gcc4.4 -L/galileo/prod/compilers/intel/cs-xe-2015/binary/composer_xe_2015.2.164/compiler/lib/intel64 -L/usr/lib/gcc/x86_64-redhat-linux/4.8.2/ -L/usr/lib/gcc/x86_64-redhat-linux/4.8.2/../../../../lib64 -L/usr/lib/gcc/x86_64-redhat-linux/4.8.2/../../../../lib64/ -L/lib/../lib64 -L/lib/../lib64/ -L/usr/lib/../lib64 -L/usr/lib/../lib64/ -L/cineca/prod/compilers/intel/cs-xe-2015/binary/composer_xe_2015.2.164/compiler/lib/intel64/ -L/cineca/prod/compilers/intel/cs-xe-2015/binary/composer_xe_2015.2.164/ipp/../compiler/lib/intel64/ -L/cineca/prod/compilers/intel/cs-xe-2015/binary/composer_xe_2015.2.164/ipp/lib/intel64/ -L/cineca/prod/compilers/intel/cs-xe-2015/binary/composer_xe_2015.2.164/mkl/lib/intel64/ -L/cineca/prod/compilers/intel/cs-xe-2015/binary/composer_xe_2015.2.164/tbb/lib/intel64/gcc4.4/ -L/usr/lib/gcc/x86_64-redhat-linux/4.8.2/../../../ -L/lib64 -L/lib/ -L/usr/lib64 -L/usr/lib -lifport -lifcore -limf -lsvml -lm -lipgo -lirc -lpthread -lirc_s -ldl'
FC_DEFINE='-D'
FC_MODDIR='./obj'
FC_MODEXT='mod'
FC_MODINC='-I'
FC_MODOUT='-mod ${ac_empty}'
FLAGS_CHECK=' -ftz -assume buffered_io -assume byterecl -align sequence -std03 -diag-disable 6477 -implicitnone -gen-interfaces -warn all -mcmodel=large -shared-intel -O3 -openmp -check nobounds -DFORCE_VECTORIZATION -mmic -qopt-report-phase=vec'
GIT_VERSION_DEPS='./.git/logs/HEAD'
GREP='/usr/bin/grep'
LDFLAGS=''
LIBOBJS=''
LIBS=''
LOCAL_PATH_IS_ALSO_GLOBAL='true'
LTLIBOBJS=''
MPIFC='mpifc'
MPILIBS=''
MPI_INC='/cineca/prod/compilers/intel/cs-xe-2015/binary/impi_5.0.2/include64'
MPI_INCLUDES=''
NVCC=''
NVCC_PROG=''
OBJEXT='o'
OCL_CFLAGS=''
OCL_CPU_FLAGS=''
OCL_GPU_FLAGS=''
OCL_INC=''
OCL_LDFLAGS=''
OCL_LIB=''
OCL_LIBS=''
PACKAGE_BUGREPORT='see the wiki'
PACKAGE_NAME='Specfem3D_Globe'
PACKAGE_STRING='Specfem3D_Globe 7.0.1'
PACKAGE_TARNAME='Specfem3DGlobe'
PACKAGE_URL=''
PACKAGE_VERSION='7.0.1'
PATH_SEPARATOR=':'
SHELL='/bin/sh'
VTK_INCLUDES=''
VTK_LDFLAGS=''
VTK_LIBS=''
ac_ct_CC='icc'
ac_ct_CXX=''
ac_ct_FC=''
ac_empty=''
bindir='${exec_prefix}/bin'
build='x86_64-unknown-linux-gnu'
build_alias=''
build_cpu='x86_64'
build_os='linux-gnu'
build_vendor='unknown'
datadir='${datarootdir}'
datarootdir='${prefix}/share'
docdir='${datarootdir}/doc/${PACKAGE_TARNAME}'
dvidir='${docdir}'
exec_prefix='${prefix}'
host='x86_64-unknown-linux-gnu'
host_alias=''
host_cpu='x86_64'
host_os='linux-gnu'
host_vendor='unknown'
htmldir='${docdir}'
includedir='${prefix}/include'
infodir='${datarootdir}/info'
libdir='${exec_prefix}/lib'
libexecdir='${exec_prefix}/libexec'
localedir='${datarootdir}/locale'
localstatedir='${prefix}/var'
mandir='${datarootdir}/man'
oldincludedir='/usr/include'
pdfdir='${docdir}'
prefix='/gpfs/scratch/userinternal/planucar/.CIG/specfem3d_globe_cineca'
program_transform_name='s,x,x,'
psdir='${docdir}'
sbindir='${exec_prefix}/sbin'
sharedstatedir='${prefix}/com'
srcdir='.'
sysconfdir='${prefix}/etc'
target_alias=''

## ----------- ##
## confdefs.h. ##
## ----------- ##

/* confdefs.h */
#define PACKAGE_NAME "Specfem3D_Globe"
#define PACKAGE_TARNAME "Specfem3DGlobe"
#define PACKAGE_VERSION "7.0.1"
#define PACKAGE_STRING "Specfem3D_Globe 7.0.1"
#define PACKAGE_BUGREPORT "see the wiki"
#define PACKAGE_URL ""
#define FC_FUNC(name,NAME) name ## _
#define FC_FUNC_(name,NAME) name ## _
#define STDC_HEADERS 1
#define HAVE_SYS_TYPES_H 1
#define HAVE_SYS_STAT_H 1
#define HAVE_STDLIB_H 1
#define HAVE_STRING_H 1
#define HAVE_MEMORY_H 1
#define HAVE_STRINGS_H 1
#define HAVE_INTTYPES_H 1
#define HAVE_STDINT_H 1
#define HAVE_UNISTD_H 1
#define HAVE_EMMINTRIN 1
#define HAVE_XMMINTRIN 1

configure: exit 0
